# generated using pymatgen
data_LiCoO2
_symmetry_space_group_name_H-M   'P 1'
_cell_length_a   2.83802992
_cell_length_b   2.83802992
_cell_length_c   14.17395729
_cell_angle_alpha   90.00000000
_cell_angle_beta   90.00000000
_cell_angle_gamma   120.00000000
_symmetry_Int_Tables_number   1
_chemical_formula_structural   LiCoO2
_chemical_formula_sum   'Li3 Co3 O6'
_cell_volume   98.86798679
_cell_formula_units_Z   3
loop_
 _symmetry_equiv_pos_site_id
 _symmetry_equiv_pos_as_xyz
  1  'x, y, z'
loop_
 _atom_site_type_symbol
 _atom_site_label
 _atom_site_symmetry_multiplicity
 _atom_site_fract_x
 _atom_site_fract_y
 _atom_site_fract_z
 _atom_site_occupancy
  Li  Li0  1  0.666667  0.333333  0.833333  1.0
  Li  Li1  1  0.333333  0.666667  0.166667  1.0
  Li  Li2  1  0.000000  0.000000  0.500000  1.0
  Co  Co3  1  0.000000  0.000000  0.000000  1.0
  Co  Co4  1  0.666667  0.333333  0.333333  1.0
  Co  Co5  1  0.333333  0.666667  0.666667  1.0
  O  O6  1  0.333333  0.666667  0.927171  1.0
  O  O7  1  0.000000  0.000000  0.739496  1.0
  O  O8  1  0.000000  0.000000  0.260504  1.0
  O  O9  1  0.666667  0.333333  0.072829  1.0
  O  O10  1  0.666667  0.333333  0.593838  1.0
  O  O11  1  0.333333  0.666667  0.406162  1.0
